10-OH-AT-N-Gluc
  ChemDraw05132014352D

 34 37  0  0  0  0  0  0  0  0999 V2000
   -1.2153   -0.1339    0.0000 C   0  0  0  0  0  0  0  0  0  0  0  0
   -0.8028   -0.8484    0.0000 N   0  3  0  0  0  0  0  0  0  0  0  0
   -1.6278   -0.8484    0.0000 C   0  0  0  0  0  0  0  0  0  0  0  0
   -0.0883   -0.4359    0.0000 C   0  0  0  0  0  0  0  0  0  0  0  0
   -0.0883    0.3891    0.0000 C   0  0  0  0  0  0  0  0  0  0  0  0
    0.6262    0.8016    0.0000 C   0  0  0  0  0  0  0  0  0  0  0  0
    0.6262    1.6266    0.0000 C   0  0  0  0  0  0  0  0  0  0  0  0
    1.3695    1.9846    0.0000 C   0  0  0  0  0  0  0  0  0  0  0  0
    1.9742    1.4234    0.0000 C   0  0  0  0  0  0  0  0  0  0  0  0
    2.7626    1.6666    0.0000 C   0  0  0  0  0  0  0  0  0  0  0  0
    2.9462    2.4709    0.0000 C   0  0  0  0  0  0  0  0  0  0  0  0
    2.3414    3.0321    0.0000 C   0  0  0  0  0  0  0  0  0  0  0  0
    1.5531    2.7889    0.0000 C   0  0  0  0  0  0  0  0  0  0  0  0
    1.0387    3.4339    0.0000 C   0  0  0  0  0  0  0  0  0  0  0  0
    0.2137    3.4339    0.0000 C   0  0  0  0  0  0  0  0  0  0  0  0
   -0.3007    2.7889    0.0000 C   0  0  0  0  0  0  0  0  0  0  0  0
   -1.0890    3.0321    0.0000 C   0  0  0  0  0  0  0  0  0  0  0  0
   -1.6938    2.4709    0.0000 C   0  0  0  0  0  0  0  0  0  0  0  0
   -1.5102    1.6666    0.0000 C   0  0  0  0  0  0  0  0  0  0  0  0
   -0.7219    1.4234    0.0000 C   0  0  0  0  0  0  0  0  0  0  0  0
   -0.1171    1.9846    0.0000 C   0  0  0  0  0  0  0  0  0  0  0  0
   -0.1988    4.1484    0.0000 O   0  0  0  0  0  0  0  0  0  0  0  0
   -0.8028   -1.6734    0.0000 C   0  0  0  0  0  0  0  0  0  0  0  0
   -0.0883   -2.0859    0.0000 C   0  0  0  0  0  0  0  0  0  0  0  0
   -0.0883   -2.9109    0.0000 C   0  0  0  0  0  0  0  0  0  0  0  0
   -0.8028   -3.3234    0.0000 C   0  0  0  0  0  0  0  0  0  0  0  0
   -1.5172   -2.9109    0.0000 C   0  0  0  0  0  0  0  0  0  0  0  0
   -1.5172   -2.0859    0.0000 O   0  0  0  0  0  0  0  0  0  0  0  0
   -2.2317   -3.3234    0.0000 C   0  0  0  0  0  0  0  0  0  0  0  0
   -2.2317   -4.1484    0.0000 O   0  0  0  0  0  0  0  0  0  0  0  0
   -2.9462   -2.9109    0.0000 O   0  5  0  0  0  0  0  0  0  0  0  0
   -0.8028   -4.1484    0.0000 O   0  0  0  0  0  0  0  0  0  0  0  0
    0.6262   -3.3234    0.0000 O   0  0  0  0  0  0  0  0  0  0  0  0
    0.6262   -1.6734    0.0000 O   0  0  0  0  0  0  0  0  0  0  0  0
  1  2  1  0      
  2  3  1  0      
  2  4  1  0      
  4  5  1  0      
  5  6  1  0      
  6  7  2  0      
  7  8  1  0      
  8  9  2  0      
  9 10  1  0      
 10 11  2  0      
 11 12  1  0      
 12 13  2  0      
  8 13  1  0      
 13 14  1  0      
 14 15  1  0      
 15 16  1  0      
 16 17  2  0      
 17 18  1  0      
 18 19  2  0      
 19 20  1  0      
 20 21  2  0      
 16 21  1  0      
  7 21  1  0      
 15 22  1  0      
 23  2  1  1      
 23 24  1  0      
 24 25  1  0      
 25 26  1  0      
 26 27  1  0      
 27 28  1  0      
 23 28  1  0      
 27 29  1  1      
 29 30  2  0      
 29 31  1  0      
 26 32  1  6      
 25 33  1  1      
 24 34  1  6      
M  CHG  2   2   1  31  -1
M  END
> <PUBCHEM_COMPOUND_CID>
6450103

$$$$
Modified-10-OH-AT-N-Gluc
  ChemDraw05132014372D

 35 38  0  0  0  0  0  0  0  0999 V2000
   -1.2153   -0.1339    0.0000 C   0  0  0  0  0  0  0  0  0  0  0  0
   -0.8028   -0.8484    0.0000 N   0  3  0  0  0  0  0  0  0  0  0  0
   -1.6278   -0.8484    0.0000 C   0  0  0  0  0  0  0  0  0  0  0  0
   -0.0883   -0.4359    0.0000 C   0  0  0  0  0  0  0  0  0  0  0  0
   -0.0883    0.3891    0.0000 C   0  0  0  0  0  0  0  0  0  0  0  0
    0.6262    0.8016    0.0000 C   0  0  0  0  0  0  0  0  0  0  0  0
    0.6262    1.6266    0.0000 C   0  0  0  0  0  0  0  0  0  0  0  0
    1.3695    1.9846    0.0000 C   0  0  0  0  0  0  0  0  0  0  0  0
    1.9742    1.4234    0.0000 C   0  0  0  0  0  0  0  0  0  0  0  0
    2.7626    1.6666    0.0000 C   0  0  0  0  0  0  0  0  0  0  0  0
    2.9462    2.4709    0.0000 C   0  0  0  0  0  0  0  0  0  0  0  0
    2.3414    3.0321    0.0000 C   0  0  0  0  0  0  0  0  0  0  0  0
    1.5531    2.7889    0.0000 C   0  0  0  0  0  0  0  0  0  0  0  0
    1.0387    3.4339    0.0000 C   0  0  0  0  0  0  0  0  0  0  0  0
    0.2137    3.4339    0.0000 C   0  0  0  0  0  0  0  0  0  0  0  0
   -0.3007    2.7889    0.0000 C   0  0  0  0  0  0  0  0  0  0  0  0
   -1.0890    3.0321    0.0000 C   0  0  0  0  0  0  0  0  0  0  0  0
   -1.6938    2.4709    0.0000 C   0  0  0  0  0  0  0  0  0  0  0  0
   -1.5102    1.6666    0.0000 C   0  0  0  0  0  0  0  0  0  0  0  0
   -0.7219    1.4234    0.0000 C   0  0  0  0  0  0  0  0  0  0  0  0
   -0.1171    1.9846    0.0000 C   0  0  0  0  0  0  0  0  0  0  0  0
   -0.1988    4.1484    0.0000 O   0  0  0  0  0  0  0  0  0  0  0  0
   -0.8028   -1.6734    0.0000 C   0  0  0  0  0  0  0  0  0  0  0  0
   -0.0883   -2.0859    0.0000 C   0  0  0  0  0  0  0  0  0  0  0  0
   -0.0883   -2.9109    0.0000 C   0  0  0  0  0  0  0  0  0  0  0  0
   -0.8028   -3.3234    0.0000 C   0  0  0  0  0  0  0  0  0  0  0  0
   -1.5172   -2.9109    0.0000 C   0  0  0  0  0  0  0  0  0  0  0  0
   -1.5172   -2.0859    0.0000 O   0  0  0  0  0  0  0  0  0  0  0  0
   -2.2317   -3.3234    0.0000 C   0  0  0  0  0  0  0  0  0  0  0  0
   -2.2317   -4.1484    0.0000 O   0  0  0  0  0  0  0  0  0  0  0  0
   -2.9462   -2.9109    0.0000 O   0  5  0  0  0  0  0  0  0  0  0  0
   -0.8028   -4.1484    0.0000 O   0  0  0  0  0  0  0  0  0  0  0  0
    0.6262   -3.3234    0.0000 O   0  0  0  0  0  0  0  0  0  0  0  0
    0.6262   -1.6734    0.0000 O   0  0  0  0  0  0  0  0  0  0  0  0
   -0.0883   -1.2609    0.0000 C   0  0  0  0  0  0  0  0  0  0  0  0
  1  2  1  0      
  2  3  1  0      
  2  4  1  0      
  4  5  1  0      
  5  6  1  0      
  6  7  2  0      
  7  8  1  0      
  8  9  2  0      
  9 10  1  0      
 10 11  2  0      
 11 12  1  0      
 12 13  2  0      
  8 13  1  0      
 13 14  1  0      
 14 15  1  0      
 15 16  1  0      
 16 17  2  0      
 17 18  1  0      
 18 19  2  0      
 19 20  1  0      
 20 21  2  0      
 16 21  1  0      
  7 21  1  0      
 15 22  1  0      
 23  2  1  1      
 23 24  1  0      
 24 25  1  0      
 25 26  1  0      
 26 27  1  0      
 27 28  1  0      
 23 28  1  0      
 27 29  1  1      
 29 30  2  0      
 29 31  1  0      
 26 32  1  6      
 25 33  1  1      
 24 34  1  6      
  2 35  1  0      
badger
M  END

$$$$
